Flow Title=Flow 04
Program Version=5.03
Number of Profiles= 1 
Profile Names=PF 1
DSS Import StartDate=
DSS Import StartTime=
DSS Import EndDate=
DSS Import EndTime=
DSS Import GetInterval= 0 
DSS Import Interval=
DSS Import GetPeak= 0 
DSS Import FillOption= 0 
