Geom Title=Geom2012
Program Version=5.03
Viewing Rectangle= 470833.91 , 484119.37 , 427716.75 , 419551.33 

River Reach=Warta           ,Dop_Jeziorsko   
Reach XY= 433 
482182.016485942414870.004460668482145.066285942414890.087360669
482131.233885942414899.781660669482116.817385942414913.774660667
482094.547185942414932.974460669482072.957085942414959.221160669
482056.997785942414992.115160668482035.736185942415049.756660668
482022.094285942415098.086960668482002.484085942415155.831960669
481982.693785942415216.219760668481969.838185942415243.230760667
481946.975785942415269.987960668481926.338285942415285.862960668
481905.523485942415304.324060667481862.838185942415327.138060668
481824.738085942415354.125660669481756.754285942415426.871860668
481713.706485942415489.578160668481700.371485942415514.343260668
481677.299785942415536.356660668481640.681385942415558.158360668
481596.654585942415590.543360667481491.456085942415632.241860669
481448.346285942415649.552060667481399.287185942415673.213760668
481347.523385942415721.173460668481321.499585942415746.238960668
481299.626385942415771.976060668481248.474385942415858.951660668
481232.599385942415911.339260668481218.311885942415987.539360669
481215.824985942416017.072460668481208.218185942416042.869360669
481198.957785942416064.697560668481171.507185942416105.708060669
481134.174185942416143.114760669481105.361185942416170.531060668
481073.941885942416199.304560669481031.277685942416247.591160668
481014.410485942416281.656260667481009.118785942416316.382960668
481017.056385942416361.031460669481034.584985942416422.216460668
481067.327285942416531.688060667481076.918485942416585.266260669
481080.887185942416652.404460669481075.926285942416714.581660667
481055.090285942416768.490560668481025.986085942416815.454260668
480998.866185942416850.842360668480969.761985942416877.631460669
480925.946785942416906.154560668480886.813585942416930.981060669
480850.011085942416954.328860668480820.272085942416971.558760669
480798.113185942416990.741060669480774.962085942417020.837460669
480743.873485942417053.910460668480713.777085942417098.889660668
480683.349985942417165.035660667480663.175385942417237.134760669
480652.922785942417290.712960668480651.573185942417317.867060669
480647.631085942417351.567260668480645.223185942417379.779660668
480646.810685942417411.529760668480660.107485942417466.058760669
480674.420285942417511.640560668480685.995785942417532.807260668
480705.178085942417559.927060667480733.951585942417593.000060668
480811.011685942417654.846560668480847.475285942417683.052160669
480886.087285942417706.109660668480937.019685942417728.268560668
480982.329685942417750.758160667481014.741185942417777.547260668
481037.336485942417803.643060667481080.225785942417866.513660667
481104.038285942417915.461660668481115.283085942417955.810660668
481119.582585942418017.326460669481112.637285942418071.235360669
481100.400285942418109.930760669481085.186685942418136.719860667
481068.650185942418155.240760669481046.160585942418181.368460668
481025.655285942418206.173160668480996.881785942418234.285160668
480967.116185942418254.128960669480937.019685942418270.665460669
480888.733185942418280.918060668480847.391985942418278.272260668
480800.428285942418269.673260668480762.725085942418257.436260669
480729.321385942418245.199260669480688.310885942418228.993560668
480627.787285942418202.865860669480562.302785942418186.990860669
480511.039685942418177.730360668480469.367785942418175.084560668
480427.365085942418176.407460669480388.669685942418182.029860668
480352.102185942418193.550660668480319.547085942418207.496060668
480280.190285942418227.009160668480252.217485942418248.589360667
480210.406285942418299.438960668480187.255185942418349.048460668
480174.025985942418405.603260668480166.749985942418482.994060669
480150.789785942418529.192760669480132.684785942418575.267660668
480106.226385942418616.278160669480073.153385942418652.989160668
480046.694985942418676.801660668480016.267885942418699.291360669
479978.471885942418724.394860668479940.371785942418740.269960668
479908.621785942418748.207460668479871.535085942418754.497660669
479840.319585942418760.145660669479808.782285942418758.466160668
479777.811685942418754.853960669479725.887085942418748.570060669
479682.892185942418749.562260669479643.866085942418767.090960668
479600.209785942418801.486860668479574.743585942418832.575460669
479554.899785942418865.648460668479540.347685942418912.612060668
479525.795585942418955.606960667479514.721285942418985.200460669
479493.714785942419017.453460669479464.279785942419053.502960669
479437.490685942419078.969160669479402.764085942419101.128060669
479373.329085942419122.294760669479346.870685942419163.966760669
479332.649285942419204.646560669479321.404485942419248.633560669
479319.420085942419286.336760668479318.097185942419324.039960667
479326.034685942419394.485460669479323.388885942419432.188660668
479311.813385942419467.245960668479294.660285942419495.229460668
479265.180485942419520.162760668479211.398285942419550.233660668
479180.844385942419563.157660669479145.125485942419581.678560669
479119.659285942419609.129060669479097.831185942419641.871360669
479072.034185942419677.590160668479059.466485942419711.986060668
479040.284185942419755.973160667479032.677385942419794.999260668
479031.023685942419831.048760667479025.237285942419897.164960667
479022.093985942419951.765160669479001.258085942420037.093460668
478987.367385942420082.734160669478945.364685942420160.455760669
478905.015685942420208.742260668478867.973885942420249.422060668
478836.223885942420284.479360668478809.103985942420317.221660668
478788.267985942420346.987360667478766.770585942420389.320760667
478745.934585942420438.930260668478720.468385942420500.776660668
478693.679285942420574.529460669478676.128685942420624.549960669
478667.999385942420661.516460668478658.291185942420701.529760668
478640.431785942420739.232960667478618.934385942420793.141860668
478582.554085942420861.602960669478558.410785942420891.368660668
478515.746685942420925.433760669478484.988785942420939.655160667
478447.285585942420946.269760668478408.590185942420950.899960669
478377.297685942420950.543760668478349.389585942420947.592660667
478309.701985942420938.662960669478273.321685942420924.772360668
478228.469285942420898.288460668478174.229585942420867.861260667
478131.769285942420843.082060669478083.813485942420814.970060669
478033.873285942420786.527260669477994.185685942420768.998560669
477946.891385942420765.029860668477908.195985942420766.683460668
477875.453685942420768.337160667477848.003085942420765.691260668
477826.031485942420763.962460669477806.992585942420768.667860668
477775.903985942420779.581960669477757.383185942420788.842360668
477740.348985942420796.733460668477716.372685942420809.678360669
477690.244985942420826.545560667477657.502785942420850.358160669
477631.705785942420872.517060669477610.539085942420902.944160668
477581.104185942420952.884360667477544.393185942421022.006960668
477511.320185942421119.572260669477495.293585942421152.277260669
477485.371685942421178.471060669477469.099785942421209.030460669
477448.481485942421241.611560669477422.353885942421269.392860668
477386.634985942421301.142860668477338.348485942421333.554460669
477270.218085942421367.288860668477211.348185942421390.109260669
477154.793385942421411.606660668477110.475585942421429.796760669
477085.320885942421452.315360669477062.302085942421494.781060668
477052.597885942421533.645960668477049.290585942421556.797060668
477049.621285942421591.192960668477051.605685942421622.281560669
477058.220285942421652.377960669477072.110985942421685.120260669
477090.631785942421723.484860668477110.144885942421764.495360669
477115.894085942421803.165260669477117.896885942421829.451360669
477119.505185942421857.330960669477118.539885942421886.509160668
477106.837585942421921.592060668477079.386985942421953.011360668
477049.621285942421982.446360668477023.493685942422002.290160669
476989.000785942422018.188860668476961.316485942422030.402160669
476937.173185942422048.923060669476917.990885942422069.428260669
476901.123585942422097.871060668476885.910085942422125.983060667
476875.657385942422160.709760668476870.365785942422194.774860669
476868.050685942422225.863460667476871.688685942422258.275060669
476879.091485942422293.306860669476893.186085942422336.327260667
476898.147085942422372.707560668476894.508985942422402.803960668
476887.894485942422424.962860668476875.122785942422461.317560669
476865.862285942422483.807260668476854.617485942422502.328060668
476842.711185942422524.817660669476826.174785942422549.953160668
476793.101785942422586.333460668476755.398585942422624.698160669
476742.169385942422637.927360669476730.924585942422655.786760667
476717.033885942422674.969060669476702.481785942422701.427460669
476692.559885942422723.255560668476686.606785942422745.745260669
476683.960885942422760.958760668476681.976485942422776.172360668
476682.687385942422792.301360669476683.750385942422831.358760668
476688.591085942422857.531960668476699.248685942422890.014160668
476713.726585942422919.709160669476724.309985942422940.214360667
476748.783985942422991.808260668476758.705885942423008.344760668
476797.702185942423079.466760669476812.735085942423107.663460668
476822.079185942423139.669960668476828.693785942423172.412260668
476834.112285942423192.230460668476837.419585942423214.058660667
476838.080985942423243.162860667476831.524885942423264.328660669
476820.006085942423281.019760668476808.153885942423300.822160669
476789.191385942423327.405460669476770.612085942423352.303760668
476749.445385942423374.131860668476726.955785942423394.637160668
476681.333785942423436.599260667476631.168685942423485.706060668
476617.410385942423500.946060669476605.247185942423517.668660669
476589.681985942423541.162760668476578.788785942423563.309360668
476565.559585942423589.106260668476556.960685942423616.226160668
476549.023185942423649.960560668476542.408585942423677.080460668
476539.101285942423700.892960668476535.132485942423728.674260668
476534.470985942423753.809760667476535.793985942423777.622260667
476541.085585942423804.080660669476549.684585942423829.216160668
476558.475685942423856.962760668476566.563685942423886.892760668
476580.865885942423933.792360669476589.625985942423959.360060668
476598.178285942423980.648460668476611.861785942424020.377960669
476648.242085942424099.091660669476661.471285942424134.149060668
476669.408785942424153.331360668476679.992185942424180.451260667
476683.079985942424196.855660668476687.335085942424216.410060668
476693.882785942424241.305560669476702.481785942424272.394160667
476708.434885942424297.529560668476711.313185942424319.949860668
476707.559185942424353.693460668476698.093685942424402.814660668
476678.669185942424448.342360668476666.480785942424500.824060667
476654.195185942424556.160360668476648.903585942424581.957260668
476649.110985942424609.541560669476647.532485942424645.513860669
476649.386285942424673.439760668476653.645985942424699.063560668
476658.489185942424721.602160668476667.575485942424740.468560668
476677.894185942424771.160260668476694.562985942424805.291560669
476707.792185942424838.629160669476715.200585942424855.297960669
476723.163385942424874.579160668476732.266185942424898.755860668
476745.164685942424929.182960669476756.409485942424960.602260668
476762.031885942424981.438260669476764.677685942425004.920060668
476761.701185942425027.409760669476756.409485942425048.907160668
476748.471985942425068.420260668476737.227185942425086.941060668
476715.068285942425119.021860668476681.995285942425153.748560669
476662.472885942425177.842660667476648.861385942425195.080060668
476636.584685942425217.728460668476623.672985942425241.435160669
476616.264685942425266.623560669476612.454685942425282.921960669
476613.512985942425299.855260668476625.789685942425352.983760668
476635.219485942425391.686160669476638.320185942425439.870460669
476640.304585942425461.698560668476639.849685942425488.986860668
476635.674385942425533.797660667476632.857185942425554.610060668
476628.398285942425576.924860667476614.336285942425609.378960669
476601.278485942425638.969760668476588.710685942425654.844760668
476572.796585942425676.583260668476550.306985942425697.749960668
476527.155885942425716.270860668476466.627885942425757.704660669
476410.778085942425790.444060668476368.444685942425819.548260668
476345.954985942425840.053460669476334.048785942425855.267060669
476321.706485942425867.612760669476307.948185942425889.044060668
476296.571085942425908.623260668476284.400185942425932.435860667
476277.785585942425956.248360667476270.641885942425980.325560668
476267.607985942426001.650960669476262.439785942426053.615260668
476264.027285942426084.042360669476263.762685942426100.711160669
476264.291785942426120.819560668476271.206285942426166.222160669
476282.283485942426203.898860669476289.334085942426246.189760668
476292.641385942426273.309560668476295.248185942426293.063660668
476293.925185942426313.172060668476290.485585942426333.544960668
476282.812685942426353.124160668476275.840285942426372.528560668
476258.206385942426406.305560669476226.430585942426474.261760669
476204.402685942426508.789260669476187.866185942426537.893460669
476167.877485942426567.860460669476153.731085942426587.016360668
476138.256685942426608.669660669476125.688985942426623.221760668
476099.892085942426647.695760667476062.188885942426676.138560668
476025.531385942426699.887760669475976.054185942426728.198260669
475946.434785942426744.096860668475914.275585942426764.415360669
475889.835085942426781.220860668475868.897685942426798.577560669
475857.255985942426808.896360667475845.230085942426819.013760667
475822.740485942426844.810760668475798.927885942426877.222260669
475772.059985942426913.671560667475748.512085942426950.713260667
475732.107885942426986.167560669475712.793185942427036.703060668
475705.000585942427063.753860667475695.078685942427096.826860668
475685.553685942427131.884260667475678.608985942427172.540360669
475676.954685942427210.597960668475678.840085942427260.031960668
475679.865185942427291.295960668475683.172485942427321.061660668
475685.156785942427345.535660667475692.432885942427404.405560669
475712.681885942427589.551160669
Rch Text X Y=480564.6828359,418049.8911357
Reverse River Text= 0 

Type RM Length L Ch R = 1 ,515943.3,416.33,475.8,490.65
XS GIS Cut Line=4
478726.422585942419727.943060668478965.738685942419839.068360668
479090.093185942419872.802760668479175.289185942419919.369560668
Node Last Edited Time=Oct/26/2017 20:18:45
#Sta/Elev= 350 
       0  127.44       1  127.51       2  127.34       3  127.11       4  126.88
       5  126.66       6  126.45       7  126.39       8  126.38       9  126.38
    9.99  126.37   10.99  126.36   11.99  126.36   13.99  126.34   14.99  126.34
   15.99  126.33   16.99  126.33   18.99  126.31   19.99  126.31   20.99   126.3
   21.99  126.29   22.99  126.29   23.99  126.28   24.99  126.28   25.99  126.27
   26.99  126.26   27.98  126.26   28.98  126.25   29.98  126.25   30.98  126.24
   31.98  126.23   32.98  126.23   34.98  126.21   35.98  126.21   36.98   126.2
   37.98   126.2   38.98  126.19   39.98  126.18   40.98  126.18   41.98  126.17
   42.98  126.17   43.98  126.16   44.98  126.15   45.98  126.15   46.97  126.14
   47.97  126.14   48.97  126.13   49.97  126.12   50.97  126.12   52.97   126.1
   54.97   126.1   55.97  126.09   56.97  126.09   57.97  126.08   59.97  126.08
   60.97  126.07   62.97  126.07   63.97  126.06   64.97  126.06   65.96  126.05
   67.96  126.05   68.96  126.04   70.96  126.04   72.96  126.02   73.96  126.02
   74.96  126.01   75.96  126.01   76.96     126   77.96     126   78.96  125.99
   79.96  125.98   80.96  125.98   81.96  125.97   82.96  125.97   83.95  125.96
   85.95  125.96   86.95  125.95   87.95  125.95   88.95  125.94   89.95  125.94
   90.95  125.93   91.95  125.93   92.95  125.92   93.95  125.92   94.95  125.91
   95.95  125.91   96.95   125.9   98.95   125.9   99.95  125.89  100.95  125.89
  101.95  125.88  102.94  125.88  103.94  125.87  104.94  125.87  105.94  125.86
  107.94  125.86  108.94  125.85  109.94  125.85  110.94  125.84  111.94  125.84
  112.94  125.83  113.94  125.83  114.94  125.82  115.94  125.82  116.94  125.81
  118.94  125.81  119.94   125.8  120.93   125.8  121.93  125.79  122.93  125.79
  123.93  125.78  124.93  125.78  125.93  125.77  126.93  125.77  127.93  125.76
  129.93  125.76  130.93  125.75  131.93  125.75  132.93  125.74  134.93  125.74
  135.93  125.73  137.93  125.73  138.93  125.74  148.92  125.74  149.92  125.75
  158.91  125.75  159.91  125.76  167.91  125.76  168.91  125.77  175.91  125.77
   176.9  125.78   183.9  125.78   184.9  125.79   191.9  125.79   192.9   125.8
   194.9   125.8  195.89  125.81  198.89  125.81  199.89  125.82  201.89  125.82
  202.89  125.83  204.89  125.83  205.89  125.84  206.89  125.84  207.89  125.85
  208.89  125.85  209.89  125.86  210.89  125.86  211.89  125.87  212.89  125.87
  213.89  125.88  214.88  125.88  215.88  125.89  216.88  125.89  217.88   125.9
  219.88   125.9  220.88  125.91  224.88  125.91  225.88  125.92  229.88  125.92
  230.88  125.93  233.87  125.93  234.87  125.94  238.87  125.94  239.87  125.95
  243.87  125.95  244.87  125.96  248.87  125.96  249.87  125.97  252.86  125.97
  253.86  125.98  257.86  125.98  258.86  125.99  262.86  125.99  263.86     126
  266.85     126  267.85  126.01  270.85  126.01  271.85  126.02  274.85  126.02
  275.84  126.03  276.84  126.03  277.84  126.04  279.84  126.04  280.84  126.05
  281.84  126.05  282.84  126.06  284.83  126.06  285.83  126.07  291.83  126.07
  292.82  126.08  298.82  126.08  299.82  126.09  301.81  126.09  302.81   126.1
  303.81  125.97  304.81  125.73  305.81  125.47  306.81  125.44  306.89  125.44
  307.81  125.41  308.81  124.75   309.8  124.04   310.8  123.44   311.8  123.27
   312.8  123.22   313.8  123.19   314.8   123.2   315.8  123.22   316.8  123.25
   317.8  123.27  318.79  123.29  319.79  123.32  320.79  123.34  321.79  123.37
  325.79  123.37  326.78  123.35  327.78  123.31  329.78  123.19  331.78  123.11
  332.78  123.06  333.78     123  334.78  122.93  335.77  122.88  336.77  122.87
  337.77  122.89  338.77  122.91  339.77  122.91  340.77  122.88  341.77  122.85
  342.77  122.83  343.76  122.83  344.76  122.85  345.76  123.01  346.76  123.24
  347.76  123.54  348.76  124.08  349.76  124.73  350.76  125.47  351.76  126.06
  360.75   126.2  361.74  126.21  362.74  126.21  363.74   126.2  364.74  126.19
  366.74  126.17  367.74  126.16  368.74  126.16  369.73  126.15  371.73  126.13
  372.73  126.13  373.73  126.12  376.73  126.09  377.73  126.09  378.72  126.08
  380.72  126.06  381.72  126.05  382.72  126.05  385.72  126.02  386.71  126.02
  387.71  126.01  389.71  125.99  390.71  125.98  391.71  125.98  392.71  125.97
   393.7  125.96  394.69  125.95  395.68  125.94  396.67  125.93  397.66  125.92
  398.65  125.91  399.64   125.9  401.62  125.88  402.61  125.87  403.61  125.86
   404.6  125.86  406.58  125.84  407.57  125.83  409.55  125.81  410.54   125.8
  411.53   125.8  412.52  125.79  413.51  125.78   414.5  125.77  415.49  125.76
  416.49  125.75  417.48  125.74  418.47  125.74  419.46  125.73  420.45  125.72
  422.43   125.7  423.42  125.69   425.4  125.67  426.39  125.66  429.36  125.63
  430.36  125.61  431.35   125.6  433.33   125.6  434.32  125.61  435.31  125.62
   436.3  125.63  437.29  125.64  439.27  125.66  440.26  125.67  442.24  125.69
  443.23   125.7  444.23  125.71  446.21  125.73   447.2  125.74  448.19  125.75
  449.18  125.77  450.17  125.78  451.16   125.8  452.15  125.82  453.14  125.84
  454.13  125.86  455.12  125.88  456.11   125.9   457.1  125.92   458.1  125.93
  459.09  125.95  460.08  125.97  461.07  125.99  462.06  126.02  463.05  126.04
  464.04  126.06  465.03  126.09  466.02  126.11  467.01  126.14     468  126.16
  468.99  126.18  469.98  126.21  470.97  126.23  471.97  126.25  472.96  126.28
  473.95   126.3  475.93  126.34  476.92  126.37  477.91  126.39   478.9  126.41
  479.89  126.43  480.88  126.46  481.87  126.48  482.86   126.5  483.85  126.55
  484.85  126.67  486.83  126.97  487.82  127.12  488.81  127.26   489.8  127.39
#Mann= 3 , 0 , 0 
       0     .08       0  302.81    .014       0  351.76     .08       0
Levee=-1,302.79,126.1,-1,361.67,126.21,	944,
Bank Sta=302.81,351.76
XS Rating Curve= 0 ,0
XS HTab Starting El and Incr=122.98,0.23, 20 
XS HTab Horizontal Distribution= 5 , 5 , 5 
Exp/Cntr=0.3,0.1

Type RM Length L Ch R = 1 ,515469.6,370.63,386.32,365.13
XS GIS Cut Line=4
478536.793885942420078.068460668478800.618385942420235.229660667
478871.262285942420307.064160667478957.348785942420355.300160669
Node Last Edited Time=Oct/26/2017 20:18:45
#Sta/Elev= 366 
       0   126.4       1  126.28    1.99  126.16    2.99  126.05    3.99  125.93
    4.99  125.81    5.98  125.69    6.98  125.57    7.98  125.48    8.97   125.5
   10.97  125.56   11.96  125.59   12.96  125.62   13.96  125.65   14.96  125.67
   15.95  125.69   16.95  125.71   17.95  125.72   18.94  125.74   19.94  125.76
   20.94  125.77   21.93  125.79   22.93  125.81   23.93  125.82   24.93  125.84
   25.92  125.85   29.91  125.85   30.91  125.86   36.89  125.86   37.89  125.87
   43.87  125.87   44.87  125.88   73.78  125.88   74.78  125.89   75.77  125.89
   77.77  125.91   78.77  125.91   79.76  125.92   80.76  125.92   81.76  125.93
   83.75  125.93   84.75  125.94   86.74  125.94   87.74  125.95   93.72  125.95
   94.72  125.94   95.72  125.94   96.71  125.93   97.71  125.93   98.71  125.92
    99.7  125.92   100.7  125.91   101.7  125.91  102.69   125.9  103.69   125.9
  104.69  125.89  105.69  125.89  106.68  125.88  107.68  125.88  108.68  125.87
  109.67  125.87  110.67  125.86  111.67  125.86  112.67  125.85  113.66  125.85
  114.66  125.84  117.65  125.84  118.65  125.85  119.64  125.86  120.64  125.87
  121.64  125.87  122.64  125.88  123.63  125.89  124.63   125.9  125.63   125.9
  126.62  125.91  127.62  125.92  128.62  125.93  129.62  125.93  130.61  125.94
  131.61  125.95  139.59  125.95  140.58  125.96  141.58  125.96  142.58  125.95
  162.52  125.95  163.51  125.96  166.51  125.96   167.5  125.97   169.5  125.97
  170.49  125.98  173.48  125.98  174.48  125.97  185.45  125.97  186.45  125.96
  207.38  125.96  209.38  125.98  210.38  125.99  211.37     126  212.37  126.01
  213.37  126.02  214.36  126.03  216.36  126.05  217.35  126.06  219.35  126.08
  220.35  126.08  221.34  126.09  223.34  126.11  224.33  126.11  225.33  126.12
  226.33  126.13  227.32  126.14  228.32  126.14  230.32  126.16  231.31  126.17
  232.31  126.17  233.31  126.18   234.3  126.19   235.3   126.2   236.3   126.2
   237.3  126.21  238.29  126.22  239.29  126.22  240.29  126.23  242.28  126.23
  243.28  126.24  244.27  126.24  246.27  126.26  247.27  126.27  248.26  126.28
  250.26   126.3  251.25  126.31  252.25  126.32  253.25  126.32  254.24  126.33
  255.24  126.34  256.24  126.35  257.24  126.36  258.23  126.37  259.23  126.37
  260.23  126.38  261.22  126.39  263.22  126.41  264.22  126.42  265.21  126.42
  267.21  126.44   268.2  126.45   269.2  126.45   270.2  126.46  271.19  126.47
  272.19  126.48  273.19  126.48  274.19  126.49  275.18   126.5  276.18  126.51
  277.18  126.51  278.17  126.52  280.17  126.54  281.17  126.54  282.16  126.55
  283.16  126.56  284.16  126.57  285.15  126.57  286.15  126.58  287.15  126.58
  288.14  126.59  289.14  126.59  290.14   126.6  291.14   126.6  292.13  126.61
  294.13  126.61  295.12  126.62  296.12  126.62  297.12  126.63  298.11  126.63
  301.11  126.66   302.1  126.67   304.1  126.69  305.09  126.71  307.09  126.73
  308.09  126.74  309.08  126.75  310.08  126.76  311.08  126.77  312.08  126.78
  313.07  126.79  314.07   126.8  315.07  126.81  316.07  126.82  317.06  126.83
  318.06  126.84  320.06  126.86  321.05  126.87  322.05  126.88  323.05  126.89
  324.05  126.89  325.04   126.9  326.04  126.91  327.04  126.92  328.04  126.93
  329.03  126.94  330.03  126.95  332.03  126.97  333.02  126.98  334.02  126.97
  335.02  126.83  336.02  126.64  337.01  126.45  338.01  126.27  340.01  125.93
     341  125.76     342  125.62     343  125.59     344  125.55  344.12  125.52
  344.99  125.27  345.99  124.65  346.99  124.03  347.99  123.43  348.98  123.13
  349.98  123.03  350.98     123  351.98     123  352.97  123.02  353.97  123.05
  354.97  123.07  355.97   123.1  356.96  123.13  357.96  123.16  358.96  123.19
  359.96  123.21  362.95  123.21  363.95   123.2  364.95  123.16  365.94  123.12
  366.94  123.06  367.94  123.01  368.94  122.98  369.93  122.95  370.93   122.9
  371.93  122.85  372.93   122.8  373.92  122.77  374.92  122.78  375.92   122.8
  376.92  122.82  377.91  122.79  379.91  122.71  380.91   122.7   381.9  122.71
   382.9  122.77   383.9  122.95   384.9  123.19  385.89  123.55  386.89  124.16
  387.89  125.01  388.89  125.66  389.88  126.11  390.05  125.95  390.88  125.18
  391.88  125.07  392.88  125.08  393.87   125.1  394.87  125.12  395.87  125.13
  396.87  125.14  397.86  125.15  398.86  125.17  399.86  125.18  400.86   125.2
  401.85  125.22  404.85  125.31  405.84  125.34  406.84  125.38  407.84  125.41
  408.84  125.44  409.83  125.48  411.83  125.54  412.82  125.57  413.82  125.59
  414.82  125.62  415.81  125.64  416.81  125.66  417.81  125.68   418.8   125.7
   419.8  125.72   420.8  125.75  421.79  125.77  422.79   125.8  423.79  125.82
  424.78  125.85  425.78  125.87  426.78  125.87  427.77  125.88  428.77  125.88
  429.77  125.89  430.76  125.89  431.76   125.9  432.76   125.9  433.75  125.91
  434.75  125.91  435.75  125.92  436.74  125.92  437.74  125.93  438.74  125.93
  439.74  125.94  441.73  125.94  442.73  125.95  443.72  125.96  444.72  125.96
  445.72  125.97  446.71  125.98  447.71  125.99  448.71     126   449.7  126.01
   450.7  126.02   451.7  126.02  452.69  126.03  454.69  126.05  455.68  126.06
  457.68  126.08  458.67  126.09  459.67  126.09  460.67   126.1  461.66  126.11
  462.66  126.11  463.66  126.12  464.65  126.12  465.65  126.13  466.65  126.14
  467.64  126.14  468.64  126.15  469.64  126.15  470.63  126.16  472.63  126.16
  473.62  126.17  474.62  126.17  475.62  126.18  476.62  126.18  477.61  126.19
  479.61  126.19   480.6   126.2   481.6   126.2   482.6  126.21  483.59  126.21
  484.59  126.22  486.58  126.22  487.58  126.23  488.58  126.23  489.57  126.24
  490.57  126.24  491.57  126.25  493.56  126.25  494.56  126.26  495.55  126.26
  496.55  126.27  497.55  126.28  498.54  126.28  499.54  126.29  500.54  126.33
  501.53   126.5  502.53  126.74  503.53  126.98  504.52  127.22  505.52  127.46
  506.52  127.69
#Mann= 3 , 0 , 0 
       0     .08       0  344.12    .014       0  389.88     .08       0
Levee=-1,333.68,126.99,-1,389.89,126.11,	500,	498
Bank Sta=344.12,389.88
XS Rating Curve= 0 ,0
XS HTab Starting El and Incr=122.85,0.24, 20 
XS HTab Horizontal Distribution= 5 , 5 , 5 
Exp/Cntr=0.3,0.1

Type RM Length L Ch R = 1 ,515085  ,211.1,334.25,363.11
XS GIS Cut Line=4
478353.786085942420337.345260669478622.720585942420605.466760669
478734.696385942420642.523460668478782.112085942420687.495560668
Node Last Edited Time=Oct/26/2017 20:18:45
#Sta/Elev= 356 
       0   126.9       1  126.69       2  126.46       3  126.24       4  126.01
       5  125.79       6  125.56       7  125.34    7.99  125.16    8.99  125.11
   10.99  125.09   11.99  125.08   13.99  125.06   14.99  125.05   17.99  125.02
   18.99  125.01   20.99  124.99   21.99  124.98   22.99  124.98   23.98  124.97
   25.98  124.95   26.98  124.94   28.98  124.92   33.98  124.92   34.98  124.93
   37.98  124.93   38.97  124.94   40.97  124.94   41.97  124.95   42.97  124.96
   43.97  124.96   45.97  124.98   46.97  124.99   48.97  125.01   49.97  125.02
   50.97  125.02   53.97  125.05   54.96  125.06   56.96  125.08   57.96  125.09
   60.96  125.12   61.96  125.13   64.96  125.16   66.96   125.2   67.96  125.22
   68.96  125.24   69.96  125.26   70.95  125.28   71.95  125.31   72.95  125.33
   73.95  125.35   74.95  125.37   75.95  125.39   77.95  125.41   78.95  125.42
   79.95  125.43   80.95  125.45   83.95  125.48   84.95  125.49   85.94   125.5
   86.94  125.51   87.94  125.52   88.94  125.53   89.94  125.55   90.94  125.56
   91.94  125.58   92.94   125.6   93.94  125.61   94.94  125.63   95.94  125.65
   96.94  125.66   97.94  125.68   98.94  125.69   99.94  125.71  100.94  125.72
  130.92  125.72  131.92  125.71  136.91  125.71  137.91   125.7  138.91   125.7
  139.91  125.69  141.91  125.69  142.91  125.68  143.91  125.68  144.91  125.67
  146.91  125.67  147.91  125.66   148.9  125.65   149.9  125.65   151.9  125.63
   152.9  125.63   153.9  125.62   154.9  125.61   155.9  125.61   157.9  125.59
   158.9  125.59   159.9  125.58   160.9  125.58   161.9  125.57   162.9  125.57
  163.89  125.56  164.89  125.55  167.89  125.52  168.89  125.51  170.89  125.49
  171.89  125.47  173.89  125.45  174.89  125.44  176.89  125.42  177.89   125.4
  178.89  125.39  179.88  125.38  180.88  125.37  183.88  125.34  184.88  125.32
  185.88  125.31  186.88   125.3  189.88  125.27  190.88  125.25  191.88  125.24
  192.88  125.23  194.88  125.21  195.87  125.19  197.87  125.17  198.87  125.15
  199.87  125.14  200.87  125.12  202.87   125.1  203.87  125.08  205.87  125.06
  206.87  125.05  207.87  125.04  210.86  125.04  211.86  125.03  213.86  125.03
  214.86  125.02  216.86  125.02  217.86  125.01  232.85  125.01  233.85  125.02
  236.85  125.02  237.85  125.03  240.85  125.03  241.84  125.04  244.84  125.04
  245.84  125.05  248.84  125.05  249.84  125.06  252.84  125.06  253.84  125.07
  261.83  125.07  262.83  125.08  266.83  125.08  267.83  125.09  269.83  125.09
  270.83   125.1  273.82   125.1  274.82  125.11  277.82  125.11  278.82  125.12
  280.82  125.12  281.82  125.13  284.82  125.13  285.82  125.14  287.82  125.14